55 Monostable Simulation
.lib eval.lib

Vcc 1 0 DC 5V
R1 1 2 100K
C1 2 0 47uF
C2 3 0 10nF
X1 0 5 4 1 3 2 2 1 555d

.AC DEC 100 1Hz 100MEG
.PROBE
.END